PINO-MILLER-OPAMP
*
* MILLER opamp, pMOS input pair, n-well technology
* ------------------------------------------------
*
* CIRCUIT DESCRIPTION
*
M1A 4 7 3 3 P W=10.2U  L=17.3U  AD=99P   AS=99P   PD=40U   PS=40U
M1B 5 8 3 3 P W=10.2U  L=17.3U  AD=99P   AS=99P   PD=40U   PS=40U
M2A 4 4 2 2 N W=100U L=20.3U AD=99P   AS=99P   PD=40U   PS=40U
M2B 5 4 2 2 N W=100U L=20.3U AD=99P   AS=99P   PD=40U   PS=40U
M3  6 5 2 2 NOUT W=172.4U L=4.3U  AD=1647P AS=1647P PD=384U  PS=384U
M4  6 9 1 1 POUT W=86.2U  L=4.3U   AD=783P  AS=783P  PD=192U  PS=192U
M5  3 9 1 1 P W=10.2U  L=20.3U  AD=99P   AS=99P   PD=40U   PS=40U
*
*R1 6 7 100k
CC 5 6 1P
CL 6 0 10P
RL 6 0 100K
*
VDD 1 0 DC 5
VSS 2 0 DC -5
V+  8 0 DC 0 AC 1
V-  7 0 DC 0
VB  9 1 DC -2
*IOUT 0 6
*
* MODELS
*
.MODEL P PMOS LEVEL=2 VTO=-0.9 KP=17E-6 GAMMA=0.50 PHI=0.69 
+ CGSO=2.8E-10 CGDO=2.8E-10 CJ=3.3E-4 MJ=0.5 CJSW=4.4E-10 MJSW=0.33 JS=1E-3
+ TOX=42.5N LD=0 UCRIT=1E4 NFS=1E11
+ LAMBDA=0.005

.MODEL N NMOS LEVEL=2  VTO=0.9 KP=50E-6 GAMMA=0.30 PHI=0.70 
+ CGSO=1.76E-10 CGDO=1.76E-10 CJ=0.7E-4 MJ=0.5 CJSW=3.9E-10 MJSW=0.33 JS=1E-3
+ TOX=42.5N NFS=1E11 LD=0 UCRIT=1E4
+ LAMBDA=0.019

.MODEL NOUT NMOS LEVEL=2 VTO=0.9 KP=50E-6 GAMMA=0.30 PHI=0.70 
+ CGSO=1.76E-10 CGDO=1.76E-10 CJ=0.7E-4 MJ=0.5 CJSW=3.9E-10 MJSW=0.33 JS=1E-3
+ TOX=42.5N NFS=1E11 LD=0 UCRIT=1E4
+ LAMBDA=0.042

.MODEL POUT PMOS LEVEL=2 VTO=-0.9 KP=17E-6 GAMMA=0.50 PHI=0.69 
+ CGSO=2.8E-10 CGDO=2.8E-10 CJ=3.3E-4 MJ=0.5 CJSW=4.4E-10 MJSW=0.33 JS=1E-3
+ TOX=42.5N NFS=1E11 LD=0 UCRIT=1E4
+ LAMBDA=0.023

* CONTROL CARDS
*
.OP
*.AC DEC 200 1 100000
.PRINT VDB(6)
.END
