*This is a sample from Carl Sechen paper

r1 1 2 1
r2 2 0 1
r3 2 3 1
r4 3 0 1 
c5 3 4 1 
c6 4 5 1 
c7 5 0 1 
c8 5 6 1 
r8 6 0 1 
c9 6 7 1 
c10 7 0 1 

v1 1 0 dc 1.0 ac 1.0
.ac dec 10 100 1000
.print ac v(7)
